PowerFlowSolver/ReportRef.txt
电力系统潮流分析实用程序 PowerFlowSolver
Ver. 0.3.14.1212 BETA
by Chen [CXuesong.], 2014 @ Xjtu
编译时间：Dec 20 2014，配置：x64 Release。

加载文件：E:\My Files\Visual Studio 2013\Projects\PowerFlowSolver\PowerFlowSolver\RTS24.txt……
[注解] IEEE RTS24
[注解] Test Case
案例“RTS24 测试样例”，母线数量：25，元件数量：88。
已加载文件：E:\My Files\Visual Studio 2013\Projects\PowerFlowSolver\PowerFlowSolver\RTS24.txt。
映射节点……
总计25条母线，其中接入24条。
扫描组件……
开始第1次迭代。当前最大误差：5.94。
开始第2次迭代。当前最大误差：0.608。
开始第3次迭代。当前最大误差：0.00922。
开始第4次迭代。当前最大误差：9.03E-006。
迭代结束，历经4次。当前最大误差：7.50577E-012。

电力稳态潮流报告
电力系统潮流分析实用程序 PowerFlowSolver
Ver. 0.3.14.1212 BETA
by Chen [CXuesong.], 2014 @ Xjtu
案例名称：RTS24 测试样例
报告生成于 2015年2月4日 16:51:47 中国标准时间

网络统计============
母线25条，其中已接入24条，PQ节点14个，PV节点9个，平衡节点：[#13]230kV-13。
共计34条支路，88个元件。

求解信息============
使用牛顿-拉夫逊法迭代4次，最大功率误差：7.50577E-012 p.u.。

节点潮流============
        母线            电压       相位     有功出力   无功出力   有功负载   无功负载  支路数
                       [p.u.]     [ °]      [p.u.]     [p.u.]     [p.u.]     [p.u.]         
    [#1]138kV-1       1.05      -3.236728   1.92      -0.013587   1.08       0.22           3
    [#2]138kV-2       1.05      -3.316366   1.92      -0.2901092  0.97       0.2            3
  [#3]138kV变电站1    1.004524  -2.963988      -          -       1.8        0.37           3
    [#4]138kV-4       1.013182  -6.361226      -          -       0.74       0.15           2
    [#5]138kV-5       1.047834  -6.474092      -          -       0.71       0.14           2
    [#6]138kV-6       1.102764  -9.641696      -       7.51e-012  1.36       0.28           2
    [#7]138kV-7       1.05       0.1549804  3          0.3995866  1.25       0.25           1
    [#8]138kV-8       1.019129  -5.472139      -          -       1.71       0.35           3
  [#9]138kV变电站2    1.016289  -4.840942      -          -       1.75       0.36           5
 [#10]138kV变电站3    1.0724    -6.721048      -          -       1.95       0.4            5
 [#11]230kV变电站2    1.035702  -0.9519135     -          -          -          -           4
 [#12]230kV变电站3    1.040111  -0.4441615     -          -          -          -           4
   [#13]230kV-13      1.05          -       0.8761051  1.334457   2.65       0.54           3
   [#14]230kV-14      1.026063   3.183443      -          -       1.94       0.39           2
   [#15]230kV-15      1.05       12.05057   2.15       1.514272   3.17       0.64           3
   [#16]230kV-16      1.05       10.93269   1.55       1.434019   1          0.2            4
   [#17]230kV-17      1.049356   15.39775      -          -          -          -           3
   [#18]230kV-18      1.05       16.82062   4          0.6018075  3.33       0.68           2
   [#19]230kV-19      1.042254   9.484815      -          -       1.81       0.37           2
   [#20]230kV-20      1.045224   10.08898      -          -       1.28       0.26           2
   [#21]230kV-21      1.05       17.64857   4         -0.4637218     -          -           3
   [#22]230kV-22      1.05       23.26968   3         -0.4020133     -          -           2
   [#23]230kV-23      1.05       11.12908   6.6       -0.0536211     -          -           3
 [#24]230kV变电站1    1.019679   6.518793      -          -          -          -           2
   [#25]230kV-25     母线未接入系统。

支路潮流============
母线1  母线2   有功传输   无功传输   有功损耗   无功损耗   接地有功   接地无功 
                [p.u.]     [p.u.]     [p.u.]     [p.u.]     [p.u.]     [p.u.]  
     1      2  0.1065059  0.2341828  2.77e-005 -0.5082147     -      -0.5083628
     1      3  0.0301174  0.2373137  0.0024003 -0.0511062     -      -0.0603908
     1      5  0.6908831 -0.1595835  0.0100657  0.0138208     -      -0.0251952
     2      4  0.4865493  0.174218   0.0083477 -0.0042673     -      -0.036513 
     2      6  0.5402781 -0.4479982  0.0213307  0.0221212     -      -0.0602833
     3      9  0.237855  -0.1500116  0.0025152 -0.023157      -      -0.0328748
    24      3  2.010253  -0.0404823  0.0092148  0.336139      -          -     
     9      4  0.2534507 -0.024218   0.001716  -0.0222943     -      -0.0289343
    11      9  0.8559038  0.1827977  0.0017057  0.0622227     -          -     
    12      9  0.972038   0.2248355  0.0022166  0.0808592     -          -     
    10      5  0.0191169  0.2995835  0.0017117 -0.0202346     -      -0.0268636
    10      6  0.8197219  0.7279982  0.0144078 -2.846445      -      -2.909155 
    14     11  1.7645    -0.4858164  0.0171035  0.0389787     -      -0.093415 
    13     11  0.4122475  0.3087084  0.0013366 -0.0982203     -      -0.1086501
     7      8  1.70547   -0.004601   0.0445301  0.1541875     -      -0.0177713
     9      8  0.0604337 -0.0103283  0.0001964 -0.0455379     -      -0.0462973
     8     10  0.0509745 -0.3350712  0.0049291 -0.0298581     -      -0.0489166
    11     10  1.315024  -0.5721704  0.0041132  0.150042      -          -     
    12     10  1.43896   -0.5318559  0.0047068  0.1716953     -          -     
    23     12  2.215778  -0.2979963  0.0581811  0.23154       -      -0.2217096
    13     12  0.2021428  0.2435303  0.0004329 -0.1057295     -      -0.1091073
    16     14  3.721603  -0.0568377  0.0658256  0.4239712     -      -0.088152 
    15     24  2.019468   0.2956567  0.0266477  0.0895604     -      -0.1168595
    15     16  1.221993  -0.1474615  0.0030358 -0.0162589     -      -0.040131 
    21     15  4.291143  -0.6527752  0.0542891  0.1951334     -      -0.227115 
    17     16  3.239533  -0.537931   0.0323779  0.1940682     -      -0.0600494
    16     19  1.219902   0.2022672  0.0041953 -0.0207744     -      -0.0530783
    18     17  1.873618  -0.1941952  0.0058111  0.0131032     -      -0.0333853
    22     17  1.398293  -0.1496676  0.0248743 -0.0497039     -      -0.2437235
    21     18  1.209429  -0.1028995  0.0022289 -0.1026793     -      -0.1201725
    20     19  0.5900983  0.1677328  0.0008314 -0.1750372     -      -0.1814929
    23     20  1.87093    0.2526957  0.0045384 -0.0648613     -      -0.0998722
    22     21  1.55709   -0.1994988  0.0197422 -0.003143      -      -0.156996 
    23     13  2.390055  -0.446168   0.0605179  0.2711688     -      -0.2004345

元件潮流============
        元件         母线1  母线2   有功传输   无功传输   有功损耗   无功损耗 
                            [p.u.]   [p.u.]     [p.u.]     [p.u.]  
传输线，[#1] -> [#2]      1      2  0.1065059  0.2341828  2.77e-005 -0.5082147
传输线，[#1] -> [#3]      1      3  0.0301174  0.2373137  0.0024003 -0.0511062
传输线，[#1] -> [#5]      1      5  0.6908831 -0.1595835  0.0100657  0.0138208
传输线，[#2] -> [#4]      2      4  0.4865493  0.174218   0.0083477 -0.0042673
传输线，[#19] -> [..     20     19  0.2950491  0.0838664  0.0004157 -0.0875186
传输线，[#2] -> [#6]      2      6  0.5402781 -0.4479982  0.0213307  0.0221212
传输线，[#3] -> [#9]      3      9  0.237855  -0.1500116  0.0025152 -0.023157 
传输线，[#4] -> [#9]      9      4  0.2534507 -0.024218   0.001716  -0.0222943
传输线，[#5] -> [#..     10      5  0.0191169  0.2995835  0.0017117 -0.0202346
传输线，[#6] -> [#..     10      6  0.8197219  0.7279982  0.0144078 -2.846445 
传输线，[#8] -> [#..      8     10  0.0509745 -0.3350712  0.0049291 -0.0298581
传输线，[#7] -> [#8]      7      8  1.70547   -0.004601   0.0445301  0.1541875
传输线，[#8] -> [#9]      9      8  0.0604337 -0.0103283  0.0001964 -0.0455379
传输线，[#13] -> [..     23     13  2.390055  -0.446168   0.0605179  0.2711688
传输线，[#11] -> [..     13     11  0.4122475  0.3087084  0.0013366 -0.0982203
传输线，[#11] -> [..     14     11  1.7645    -0.4858164  0.0171035  0.0389787
传输线，[#20] -> [..     23     20  0.9354648  0.1263478  0.0022692 -0.0324307
传输线，[#12] -> [..     13     12  0.2021428  0.2435303  0.0004329 -0.1057295
传输线，[#12] -> [..     23     12  2.215778  -0.2979963  0.0581811  0.23154  
传输线，[#14] -> [..     16     14  3.721603  -0.0568377  0.0658256  0.4239712
传输线，[#20] -> [..     23     20  0.9354648  0.1263478  0.0022692 -0.0324307
传输线，[#15] -> [..     15     16  1.221993  -0.1474615  0.0030358 -0.0162589
传输线，[#15] -> [..     21     15  2.145572  -0.3263876  0.0271445  0.0975667
传输线，[#15] -> [..     21     15  2.145572  -0.3263876  0.0271445  0.0975667
传输线，[#15] -> [..     15     24  2.019468   0.2956567  0.0266477  0.0895604
传输线，[#16] -> [..     17     16  3.239533  -0.537931   0.0323779  0.1940682
传输线，[#16] -> [..     16     19  1.219902   0.2022672  0.0041953 -0.0207744
变压器，[#9] -> [#..     11      9  0.8559038  0.1827977  0.0017057  0.0622227
传输线，[#17] -> [..     18     17  1.873618  -0.1941952  0.0058111  0.0131032
传输线，[#17] -> [..     22     17  1.398293  -0.1496676  0.0248743 -0.0497039
传输线，[#18] -> [..     21     18  0.6047145 -0.0514497  0.0011144 -0.0513397
传输线，[#18] -> [..     21     18  0.6047145 -0.0514497  0.0011144 -0.0513397
传输线，[#19] -> [..     20     19  0.2950491  0.0838664  0.0004157 -0.0875186
传输线，[#21] -> [..     22     21  1.55709   -0.1994988  0.0197422 -0.003143 
变压器，[#3] -> [#..     24      3  2.010253  -0.0404823  0.0092148  0.336139 
变压器，[#9] -> [#..     12      9  0.972038   0.2248355  0.0022166  0.0808592
变压器，[#10] -> [..     11     10  1.315024  -0.5721704  0.0041132  0.150042 
变压器，[#10] -> [..     12     10  1.43896   -0.5318559  0.0047068  0.1716953

总计================
总出力：有功 29.0161 p.u.，无功 4.06109 p.u.。
总负载：有功 28.5 p.u.，无功 5.8 p.u.。
总网损：有功 0.516105 p.u.，无功 -1.73891 p.u.。
接地支路损耗：有功 0 p.u.，无功 -5.9559 p.u.。

